2024_89_CemigReconfigurationCases/1_AlimsCemig/UHQM06/UHQM06CargaBT_Dez.dss
new load.3013153932M1 bus1=RML1060705297.1.2.0,Phases=2,kv=0.24,kW=0.55592,pf=0.92,Vminpu=0.92,Vmaxpu=1.5,model=8,zipv=[0.5,0,0.5,1,0,0,0],daily=RUR1_12,status=variable
new load.3011372221M1 bus1=RML1060717240.1.2.0,Phases=2,kv=0.24,kW=0.91908,pf=0.92,Vminpu=0.92,Vmaxpu=1.5,model=8,zipv=[0.5,0,0.5,1,0,0,0],daily=RUR2_5,status=variable
new load.3011880178M1 bus1=RML1060947091.1.2.0,Phases=2,kv=0.24,kW=0.35674,pf=0.92,Vminpu=0.92,Vmaxpu=1.5,model=8,zipv=[0.5,0,0.5,1,0,0,0],daily=RES3_10,status=variable
new load.3011373577M1 bus1=RML1060763251.1.2.0,Phases=2,kv=0.24,kW=0.88342,pf=0.92,Vminpu=0.92,Vmaxpu=1.5,model=8,zipv=[0.5,0,0.5,1,0,0,0],daily=RUR2_5,status=variable
new load.3011373516M1 bus1=RML1060808175.1.2.0,Phases=2,kv=0.24,kW=0.35654,pf=0.92,Vminpu=0.92,Vmaxpu=1.5,model=8,zipv=[0.5,0,0.5,1,0,0,0],daily=RUR2_5,status=variable
new load.3013121470M1 bus1=RML1060809014.1.2.3.0,Phases=3,kv=0.22,kW=0.80738,pf=0.92,Vminpu=0.92,Vmaxpu=1.5,model=8,zipv=[0.5,0,0.5,1,0,0,0],daily=RUR2_9,status=variable
new load.3011445867M1 bus1=RML1060763253.1.2.0,Phases=2,kv=0.24,kW=0.71458,pf=0.92,Vminpu=0.92,Vmaxpu=1.5,model=8,zipv=[0.5,0,0.5,1,0,0,0],daily=RUR2_6,status=variable
new load.3011424024M1 bus1=RML1060994026.1.2.0,Phases=2,kv=0.24,kW=0.61866,pf=0.92,Vminpu=0.92,Vmaxpu=1.5,model=8,zipv=[0.5,0,0.5,1,0,0,0],daily=RUR2_6,status=variable
new load.3005800507M1 bus1=RML1051274552.1.2.3.0,Phases=3,kv=0.22,kW=1.2976,pf=0.92,Vminpu=0.92,Vmaxpu=1.5,model=8,zipv=[0.5,0,0.5,1,0,0,0],daily=RUR4_5,status=variable
new load.3004033890M1 bus1=RML1051525327.1.2.3.0,Phases=3,kv=0.22,kW=0.24518,pf=0.92,Vminpu=0.92,Vmaxpu=1.5,model=8,zipv=[0.5,0,0.5,1,0,0,0],daily=RUR2_17,status=variable
new load.3006000434M1 bus1=RML1054663917.1.2.0,Phases=2,kv=0.24,kW=3.78092,pf=0.92,Vminpu=0.92,Vmaxpu=1.5,model=8,zipv=[0.5,0,0.5,1,0,0,0],daily=RUR4_9,status=variable
new load.3010181232M1 bus1=RML1056784894.1.2.3.0,Phases=3,kv=0.22,kW=27.6722,pf=0.92,Vminpu=0.92,Vmaxpu=1.5,model=8,zipv=[0.5,0,0.5,1,0,0,0],daily=RUR4_1,status=variable
new load.3001728330M1 bus1=RML1051543478.1.2.0,Phases=2,kv=0.24,kW=3.10294,pf=0.92,Vminpu=0.92,Vmaxpu=1.5,model=8,zipv=[0.5,0,0.5,1,0,0,0],daily=RUR3_11,status=variable
new load.3001728329M1 bus1=RML1051542225.1.2.0,Phases=2,kv=0.24,kW=2.72814,pf=0.92,Vminpu=0.92,Vmaxpu=1.5,model=8,zipv=[0.5,0,0.5,1,0,0,0],daily=RUR3_11,status=variable
new load.3007420670M1 bus1=RML1054125085.1.2.0,Phases=2,kv=0.24,kW=0.4115,pf=0.92,Vminpu=0.92,Vmaxpu=1.5,model=8,zipv=[0.5,0,0.5,1,0,0,0],daily=RUR4_18,status=variable
new load.3007420664M1 bus1=RML1054125050.1.2.0,Phases=2,kv=0.24,kW=0.53178,pf=0.92,Vminpu=0.92,Vmaxpu=1.5,model=8,zipv=[0.5,0,0.5,1,0,0,0],daily=RUR1_24,status=variable
new load.3007011416M1 bus1=RML1054125106.1.2.0,Phases=2,kv=0.24,kW=0.18388,pf=0.92,Vminpu=0.92,Vmaxpu=1.5,model=8,zipv=[0.5,0,0.5,1,0,0,0],daily=RUR1_11,status=variable
new load.3007420667M1 bus1=RML1054125092.1.2.0,Phases=2,kv=0.24,kW=0.54568,pf=0.92,Vminpu=0.92,Vmaxpu=1.5,model=8,zipv=[0.5,0,0.5,1,0,0,0],daily=RUR3_21,status=variable
new load.3007420663M1 bus1=RML1054125127.1.2.0,Phases=2,kv=0.24,kW=0.47926,pf=0.92,Vminpu=0.92,Vmaxpu=1.5,model=8,zipv=[0.5,0,0.5,1,0,0,0],daily=RUR2_22,status=variable
new load.3007420674M1 bus1=RML1054125120.1.2.0,Phases=2,kv=0.24,kW=0.02688,pf=0.92,Vminpu=0.92,Vmaxpu=1.5,model=8,zipv=[0.5,0,0.5,1,0,0,0],daily=RUR2_22,status=variable
new load.3007420665M1 bus1=RML1054125162.1.2.0,Phases=2,kv=0.24,kW=0.63238,pf=0.92,Vminpu=0.92,Vmaxpu=1.5,model=8,zipv=[0.5,0,0.5,1,0,0,0],daily=RUR1_24,status=variable
new load.3007011441M1 bus1=RML1054125141.1.2.0,Phases=2,kv=0.24,kW=0.55846,pf=0.92,Vminpu=0.92,Vmaxpu=1.5,model=8,zipv=[0.5,0,0.5,1,0,0,0],daily=RUR1_11,status=variable
new load.3007011421M1 bus1=RML1054125232.1.2.0,Phases=2,kv=0.24,kW=1.60428,pf=0.92,Vminpu=0.92,Vmaxpu=1.5,model=8,zipv=[0.5,0,0.5,1,0,0,0],daily=RUR4_6,status=variable
new load.3007011442M1 bus1=RML1054125253.1.2.0,Phases=2,kv=0.24,kW=0.2268,pf=0.92,Vminpu=0.92,Vmaxpu=1.5,model=8,zipv=[0.5,0,0.5,1,0,0,0],daily=RUR2_8,status=variable
new load.3007011425M1 bus1=RML1054125246.1.2.0,Phases=2,kv=0.24,kW=0.83088,pf=0.92,Vminpu=0.92,Vmaxpu=1.5,model=8,zipv=[0.5,0,0.5,1,0,0,0],daily=RUR1_11,status=variable
new load.3007420668M1 bus1=RML1054125260.1.2.0,Phases=2,kv=0.24,kW=0.30182,pf=0.92,Vminpu=0.92,Vmaxpu=1.5,model=8,zipv=[0.5,0,0.5,1,0,0,0],daily=RUR1_24,status=variable
new load.3007420669M1 bus1=RML1054125211.1.2.0,Phases=2,kv=0.24,kW=0.49724,pf=0.92,Vminpu=0.92,Vmaxpu=1.5,model=8,zipv=[0.5,0,0.5,1,0,0,0],daily=RUR4_18,status=variable
new load.3010816368M1 bus1=RML1056731267.1.2.0,Phases=2,kv=0.24,kW=0.86476,pf=0.92,Vminpu=0.92,Vmaxpu=1.5,model=8,zipv=[0.5,0,0.5,1,0,0,0],daily=RUR1_12,status=variable
new load.3007011443M1 bus1=RML1054125281.1.2.0,Phases=2,kv=0.24,kW=0.71424,pf=0.92,Vminpu=0.92,Vmaxpu=1.5,model=8,zipv=[0.5,0,0.5,1,0,0,0],daily=RUR3_7,status=variable
new load.3007420666M1 bus1=RML1054125274.1.2.0,Phases=2,kv=0.24,kW=0.98538,pf=0.92,Vminpu=0.92,Vmaxpu=1.5,model=8,zipv=[0.5,0,0.5,1,0,0,0],daily=RUR2_22,status=variable
new load.3007420671M1 bus1=RML1054125288.1.2.0,Phases=2,kv=0.24,kW=0.38968,pf=0.92,Vminpu=0.92,Vmaxpu=1.5,model=8,zipv=[0.5,0,0.5,1,0,0,0],daily=RUR2_22,status=variable
new load.3007420672M1 bus1=RML1054125295.1.2.0,Phases=2,kv=0.24,kW=1.44312,pf=0.92,Vminpu=0.92,Vmaxpu=1.5,model=8,zipv=[0.5,0,0.5,1,0,0,0],daily=RUR4_18,status=variable
new load.3007420662M1 bus1=RML1054125309.1.2.0,Phases=2,kv=0.24,kW=0.51956,pf=0.92,Vminpu=0.92,Vmaxpu=1.5,model=8,zipv=[0.5,0,0.5,1,0,0,0],daily=RUR2_22,status=variable
new load.3007011367M1 bus1=RML1053993702.1.2.0,Phases=2,kv=0.24,kW=0.64258,pf=0.92,Vminpu=0.92,Vmaxpu=1.5,model=8,zipv=[0.5,0,0.5,1,0,0,0],daily=RUR2_8,status=variable
new load.3007336984M1 bus1=RML1053994108.1.2.0,Phases=2,kv=0.24,kW=0.65868,pf=0.92,Vminpu=0.92,Vmaxpu=1.5,model=8,zipv=[0.5,0,0.5,1,0,0,0],daily=RUR2_20,status=variable
new load.3007337037M1 bus1=RML1053994101.1.2.0,Phases=2,kv=0.24,kW=0.19138,pf=0.92,Vminpu=0.92,Vmaxpu=1.5,model=8,zipv=[0.5,0,0.5,1,0,0,0],daily=RUR2_20,status=variable
new load.3007011379M1 bus1=RML1053993863.1.2.0,Phases=2,kv=0.24,kW=0.7635,pf=0.92,Vminpu=0.92,Vmaxpu=1.5,model=8,zipv=[0.5,0,0.5,1,0,0,0],daily=RUR3_7,status=variable
new load.3007011385M1 bus1=RML1053993954.1.2.0,Phases=2,kv=0.24,kW=1.91152,pf=0.92,Vminpu=0.92,Vmaxpu=1.5,model=8,zipv=[0.5,0,0.5,1,0,0,0],daily=RUR2_8,status=variable
new load.3007337034M1 bus1=RML1056731253.1.2.0,Phases=2,kv=0.24,kW=0.19138,pf=0.92,Vminpu=0.92,Vmaxpu=1.5,model=8,zipv=[0.5,0,0.5,1,0,0,0],daily=RUR2_20,status=variable
new load.3007337044M1 bus1=RML1053994038.1.2.0,Phases=2,kv=0.24,kW=0.60526,pf=0.92,Vminpu=0.92,Vmaxpu=1.5,model=8,zipv=[0.5,0,0.5,1,0,0,0],daily=RUR2_20,status=variable
new load.3007011370M1 bus1=RML1053993807.1.2.0,Phases=2,kv=0.24,kW=2.2733,pf=0.92,Vminpu=0.92,Vmaxpu=1.5,model=8,zipv=[0.5,0,0.5,1,0,0,0],daily=RUR2_8,status=variable
new load.3007011378M1 bus1=RML1053993709.1.2.0,Phases=2,kv=0.24,kW=0.77756,pf=0.92,Vminpu=0.92,Vmaxpu=1.5,model=8,zipv=[0.5,0,0.5,1,0,0,0],daily=RUR2_8,status=variable
new load.3007011358M1 bus1=RML1053993814.1.2.0,Phases=2,kv=0.24,kW=0.61976,pf=0.92,Vminpu=0.92,Vmaxpu=1.5,model=8,zipv=[0.5,0,0.5,1,0,0,0],daily=RUR1_11,status=variable
new load.3007011361M1 bus1=RML1053994143.1.2.0,Phases=2,kv=0.24,kW=0.95036,pf=0.92,Vminpu=0.92,Vmaxpu=1.5,model=8,zipv=[0.5,0,0.5,1,0,0,0],daily=RUR2_8,status=variable
new load.3007337039M1 bus1=RML1053994087.1.2.0,Phases=2,kv=0.24,kW=0.10564,pf=0.92,Vminpu=0.92,Vmaxpu=1.5,model=8,zipv=[0.5,0,0.5,1,0,0,0],daily=RUR1_18,status=variable
new load.3007337035M1 bus1=RML1053994129.1.2.0,Phases=2,kv=0.24,kW=0.74768,pf=0.92,Vminpu=0.92,Vmaxpu=1.5,model=8,zipv=[0.5,0,0.5,1,0,0,0],daily=RUR2_20,status=variable
new load.3007011386M1 bus1=RML1053993982.1.2.0,Phases=2,kv=0.24,kW=2.4893,pf=0.92,Vminpu=0.92,Vmaxpu=1.5,model=8,zipv=[0.5,0,0.5,1,0,0,0],daily=RUR2_8,status=variable
new load.3007011380M1 bus1=RML1053993765.1.2.0,Phases=2,kv=0.24,kW=2.4731,pf=0.92,Vminpu=0.92,Vmaxpu=1.5,model=8,zipv=[0.5,0,0.5,1,0,0,0],daily=RUR2_8,status=variable
new load.3007011383M1 bus1=RML1053994073.1.2.0,Phases=2,kv=0.24,kW=0.67424,pf=0.92,Vminpu=0.92,Vmaxpu=1.5,model=8,zipv=[0.5,0,0.5,1,0,0,0],daily=RUR1_11,status=variable
new load.3007337040M1 bus1=RML1053994080.1.2.0,Phases=2,kv=0.24,kW=0.18212,pf=0.92,Vminpu=0.92,Vmaxpu=1.5,model=8,zipv=[0.5,0,0.5,1,0,0,0],daily=RUR1_18,status=variable
new load.3007337036M1 bus1=RML1053994122.1.2.0,Phases=2,kv=0.24,kW=0.11656,pf=0.92,Vminpu=0.92,Vmaxpu=1.5,model=8,zipv=[0.5,0,0.5,1,0,0,0],daily=RUR1_18,status=variable
new load.3007011368M1 bus1=RML1053994031.1.2.0,Phases=2,kv=0.24,kW=1.23272,pf=0.92,Vminpu=0.92,Vmaxpu=1.5,model=8,zipv=[0.5,0,0.5,1,0,0,0],daily=RUR1_11,status=variable
new load.3007337033M1 bus1=RML1053994157.1.2.0,Phases=2,kv=0.24,kW=1.45532,pf=0.92,Vminpu=0.92,Vmaxpu=1.5,model=8,zipv=[0.5,0,0.5,1,0,0,0],daily=RUR2_20,status=variable
new load.3007011372M1 bus1=RML1053993688.1.2.0,Phases=2,kv=0.24,kW=1.79272,pf=0.92,Vminpu=0.92,Vmaxpu=1.5,model=8,zipv=[0.5,0,0.5,1,0,0,0],daily=RUR2_8,status=variable
new load.3007011387M1 bus1=RML1053994017.1.2.0,Phases=2,kv=0.24,kW=2.64232,pf=0.92,Vminpu=0.92,Vmaxpu=1.5,model=8,zipv=[0.5,0,0.5,1,0,0,0],daily=RUR3_7,status=variable
new load.3007011363M1 bus1=RML1053994045.1.2.0,Phases=2,kv=0.24,kW=1.27974,pf=0.92,Vminpu=0.92,Vmaxpu=1.5,model=8,zipv=[0.5,0,0.5,1,0,0,0],daily=RUR2_8,status=variable
new load.3007339163M1 bus1=RML1054052936.1.2.0,Phases=2,kv=0.24,kW=0.15298,pf=0.92,Vminpu=0.92,Vmaxpu=1.5,model=8,zipv=[0.5,0,0.5,1,0,0,0],daily=RUR1_18,status=variable
new load.3007337041M1 bus1=RML1053994066.1.2.0,Phases=2,kv=0.24,kW=0.30962,pf=0.92,Vminpu=0.92,Vmaxpu=1.5,model=8,zipv=[0.5,0,0.5,1,0,0,0],daily=RUR1_18,status=variable
new load.3007337038M1 bus1=RML1053994094.1.2.0,Phases=2,kv=0.24,kW=1.89646,pf=0.92,Vminpu=0.92,Vmaxpu=1.5,model=8,zipv=[0.5,0,0.5,1,0,0,0],daily=RUR3_18,status=variable
new load.3007011375M1 bus1=RML1053994010.1.2.0,Phases=2,kv=0.24,kW=1.97092,pf=0.92,Vminpu=0.92,Vmaxpu=1.5,model=8,zipv=[0.5,0,0.5,1,0,0,0],daily=RUR2_8,status=variable
new load.3007011371M1 bus1=RML1053993800.1.2.0,Phases=2,kv=0.24,kW=0.53458,pf=0.92,Vminpu=0.92,Vmaxpu=1.5,model=8,zipv=[0.5,0,0.5,1,0,0,0],daily=RUR2_8,status=variable
new load.3007011369M1 bus1=RML1053994024.1.2.0,Phases=2,kv=0.24,kW=0.55078,pf=0.92,Vminpu=0.92,Vmaxpu=1.5,model=8,zipv=[0.5,0,0.5,1,0,0,0],daily=RUR2_8,status=variable
new load.3007337045M1 bus1=RML1053994115.1.2.0,Phases=2,kv=0.24,kW=0.30708,pf=0.92,Vminpu=0.92,Vmaxpu=1.5,model=8,zipv=[0.5,0,0.5,1,0,0,0],daily=RUR2_20,status=variable
new load.3007337047M1 bus1=RML1053993884.1.2.0,Phases=2,kv=0.24,kW=0.47716,pf=0.92,Vminpu=0.92,Vmaxpu=1.5,model=8,zipv=[0.5,0,0.5,1,0,0,0],daily=RUR1_18,status=variable
new load.3007011365M1 bus1=RML1053993716.1.2.0,Phases=2,kv=0.24,kW=1.83378,pf=0.92,Vminpu=0.92,Vmaxpu=1.5,model=8,zipv=[0.5,0,0.5,1,0,0,0],daily=RUR4_6,status=variable
new load.3007011388M1 bus1=RML1053993996.1.2.0,Phases=2,kv=0.24,kW=2.16734,pf=0.92,Vminpu=0.92,Vmaxpu=1.5,model=8,zipv=[0.5,0,0.5,1,0,0,0],daily=RUR3_7,status=variable
new load.3007011364M1 bus1=RML1053993730.1.2.0,Phases=2,kv=0.24,kW=0.89096,pf=0.92,Vminpu=0.92,Vmaxpu=1.5,model=8,zipv=[0.5,0,0.5,1,0,0,0],daily=RUR2_8,status=variable
new load.3007337043M1 bus1=RML1053994052.1.2.0,Phases=2,kv=0.24,kW=1.76882,pf=0.92,Vminpu=0.92,Vmaxpu=1.5,model=8,zipv=[0.5,0,0.5,1,0,0,0],daily=RUR4_15,status=variable
new load.3012175958M1 bus1=RML1060992912.1.2.0,Phases=2,kv=0.24,kW=0.0947,pf=0.92,Vminpu=0.92,Vmaxpu=1.5,model=8,zipv=[0.5,0,0.5,1,0,0,0],daily=RUR1_18,status=variable
new load.3014134058M1 bus1=RML1061040257.1.2.3.0,Phases=3,kv=0.22,kW=4.07372,pf=0.92,Vminpu=0.92,Vmaxpu=1.5,model=8,zipv=[0.5,0,0.5,1,0,0,0],daily=RUR2_27,status=variable
new load.3013378429M1 bus1=RML1060719211.1.2.3.0,Phases=3,kv=0.22,kW=0.2247,pf=0.92,Vminpu=0.92,Vmaxpu=1.5,model=8,zipv=[0.5,0,0.5,1,0,0,0],daily=RUR2_18,status=variable
new load.3005881429M1 bus1=RML1051645972.1.2.0,Phases=2,kv=0.24,kW=0.69658,pf=0.92,Vminpu=0.92,Vmaxpu=1.5,model=8,zipv=[0.5,0,0.5,1,0,0,0],daily=RUR2_8,status=variable
new load.3011906495M1 bus1=RML1060243397.1.2.3.0,Phases=3,kv=0.22,kW=10.26248,pf=0.92,Vminpu=0.92,Vmaxpu=1.5,model=8,zipv=[0.5,0,0.5,1,0,0,0],daily=RUR4_9,status=variable
new load.3011406360M1 bus1=RML1060763263.1.2.0,Phases=2,kv=0.24,kW=0.96662,pf=0.92,Vminpu=0.92,Vmaxpu=1.5,model=8,zipv=[0.5,0,0.5,1,0,0,0],daily=RUR2_5,status=variable
new load.3011463344M1 bus1=RML1060706117.1.2.0,Phases=2,kv=0.24,kW=0.60428,pf=0.92,Vminpu=0.92,Vmaxpu=1.5,model=8,zipv=[0.5,0,0.5,1,0,0,0],daily=RUR2_6,status=variable
new load.3004965338M1 bus1=RML1051517179.1.2.0,Phases=2,kv=0.24,kW=2.52654,pf=0.92,Vminpu=0.92,Vmaxpu=1.5,model=8,zipv=[0.5,0,0.5,1,0,0,0],daily=RUR4_10,status=variable
new load.3004965343M1 bus1=RML1051518215.1.2.0,Phases=2,kv=0.24,kW=2.92426,pf=0.92,Vminpu=0.92,Vmaxpu=1.5,model=8,zipv=[0.5,0,0.5,1,0,0,0],daily=RUR3_11,status=variable
new load.3004965342M1 bus1=RML1051518803.1.2.0,Phases=2,kv=0.24,kW=2.56178,pf=0.92,Vminpu=0.92,Vmaxpu=1.5,model=8,zipv=[0.5,0,0.5,1,0,0,0],daily=RUR4_10,status=variable
new load.3004965341M1 bus1=RML1051519069.1.2.0,Phases=2,kv=0.24,kW=17.39338,pf=0.92,Vminpu=0.92,Vmaxpu=1.5,model=8,zipv=[0.5,0,0.5,1,0,0,0],daily=RUR4_10,status=variable
new load.3007163043M1 bus1=RML1053777472.1.2.0,Phases=2,kv=0.24,kW=3.2206,pf=0.92,Vminpu=0.92,Vmaxpu=1.5,model=8,zipv=[0.5,0,0.5,1,0,0,0],daily=RUR3_11,status=variable
new load.3011791135M1 bus1=RML1060922638.1.2.0,Phases=2,kv=0.24,kW=2.58074,pf=0.92,Vminpu=0.92,Vmaxpu=1.5,model=8,zipv=[0.5,0,0.5,1,0,0,0],daily=RES5_9,status=variable
new load.3004107587M1 bus1=RML1051539964.1.2.3.0,Phases=3,kv=0.22,kW=6.18602,pf=0.92,Vminpu=0.92,Vmaxpu=1.5,model=8,zipv=[0.5,0,0.5,1,0,0,0],daily=RUR4_16,status=variable
new load.3012419224M1 bus1=RML1060278616.1.2.3.0,Phases=3,kv=0.22,kW=3.00504,pf=0.92,Vminpu=0.92,Vmaxpu=1.5,model=8,zipv=[0.5,0,0.5,1,0,0,0],daily=COM2_24,status=variable
new load.3004965339M1 bus1=RML1051517347.1.2.0,Phases=2,kv=0.24,kW=4.70776,pf=0.92,Vminpu=0.92,Vmaxpu=1.5,model=8,zipv=[0.5,0,0.5,1,0,0,0],daily=RUR4_10,status=variable
new load.3013442025M1 bus1=RML1060938164.1.2.0,Phases=2,kv=0.24,kW=0.29124,pf=0.92,Vminpu=0.92,Vmaxpu=1.5,model=8,zipv=[0.5,0,0.5,1,0,0,0],daily=RES1_11,status=variable
new load.3011380820M1 bus1=RML1060688396.1.0,Phases=1,kv=0.12,kW=1.06752,pf=0.92,Vminpu=0.92,Vmaxpu=1.5,model=8,zipv=[0.5,0,0.5,1,0,0,0],daily=RUR1_10,status=variable
new load.3006758123M1 bus1=RML1051533482.1.2.3.0,Phases=3,kv=0.22,kW=2.63212,pf=0.92,Vminpu=0.92,Vmaxpu=1.5,model=8,zipv=[0.5,0,0.5,1,0,0,0],daily=IND3_8,status=variable
new load.3011461142M1 bus1=RML1060908605.1.2.0,Phases=2,kv=0.24,kW=0.27816,pf=0.92,Vminpu=0.92,Vmaxpu=1.5,model=8,zipv=[0.5,0,0.5,1,0,0,0],daily=RUR2_6,status=variable
new load.3011724247M1 bus1=RML1056656535.1.2.0,Phases=2,kv=0.24,kW=0.3503,pf=0.92,Vminpu=0.92,Vmaxpu=1.5,model=8,zipv=[0.5,0,0.5,1,0,0,0],daily=RES2_6,status=variable
new load.3011498426M1 bus1=RML1060706101.1.2.0,Phases=2,kv=0.24,kW=0.61204,pf=0.92,Vminpu=0.92,Vmaxpu=1.5,model=8,zipv=[0.5,0,0.5,1,0,0,0],daily=RUR2_7,status=variable
new load.3011477043M1 bus1=RML1060706286.1.2.0,Phases=2,kv=0.24,kW=0.49718,pf=0.92,Vminpu=0.92,Vmaxpu=1.5,model=8,zipv=[0.5,0,0.5,1,0,0,0],daily=RUR1_11,status=variable
new load.3006541611M1 bus1=RML1053589977.1.2.0,Phases=2,kv=0.24,kW=0.62478,pf=0.92,Vminpu=0.92,Vmaxpu=1.5,model=8,zipv=[0.5,0,0.5,1,0,0,0],daily=RUR3_1,status=variable
new load.3010617891M1 bus1=RML1054736661.1.2.3.0,Phases=3,kv=0.22,kW=4.30286,pf=0.92,Vminpu=0.92,Vmaxpu=1.5,model=8,zipv=[0.5,0,0.5,1,0,0,0],daily=RUR4_7,status=variable
new load.3010538931M1 bus1=RML1054703523.1.2.3.0,Phases=3,kv=0.22,kW=0.41992,pf=0.92,Vminpu=0.92,Vmaxpu=1.5,model=8,zipv=[0.5,0,0.5,1,0,0,0],daily=RUR2_5,status=variable
new load.3007550266M1 bus1=RML1054125022.1.2.0,Phases=2,kv=0.24,kW=1.65644,pf=0.92,Vminpu=0.92,Vmaxpu=1.5,model=8,zipv=[0.5,0,0.5,1,0,0,0],daily=RUR3_23,status=variable
new load.3007550269M1 bus1=RML1054125267.1.2.0,Phases=2,kv=0.24,kW=0.52724,pf=0.92,Vminpu=0.92,Vmaxpu=1.5,model=8,zipv=[0.5,0,0.5,1,0,0,0],daily=RUR4_20,status=variable
new load.3007550268M1 bus1=RML1054125197.1.2.0,Phases=2,kv=0.24,kW=1.44798,pf=0.92,Vminpu=0.92,Vmaxpu=1.5,model=8,zipv=[0.5,0,0.5,1,0,0,0],daily=RUR2_25,status=variable
new load.3007550267M1 bus1=RML1054124994.1.2.0,Phases=2,kv=0.24,kW=1.8411,pf=0.92,Vminpu=0.92,Vmaxpu=1.5,model=8,zipv=[0.5,0,0.5,1,0,0,0],daily=RUR3_23,status=variable
new load.3007640797M1 bus1=RML1054164397.1.2.3.0,Phases=3,kv=0.22,kW=1.4232,pf=0.92,Vminpu=0.92,Vmaxpu=1.5,model=8,zipv=[0.5,0,0.5,1,0,0,0],daily=RUR4_22,status=variable
new load.3007723105M1 bus1=RML1054052943.1.2.0,Phases=2,kv=0.24,kW=0.2016,pf=0.92,Vminpu=0.92,Vmaxpu=1.5,model=8,zipv=[0.5,0,0.5,1,0,0,0],daily=COM1_1,status=variable
new load.3013215905M1 bus1=RML1060998775.1.2.0,Phases=2,kv=0.24,kW=0.28594,pf=0.92,Vminpu=0.92,Vmaxpu=1.5,model=8,zipv=[0.5,0,0.5,1,0,0,0],daily=RES5_10,status=variable
new load.3011435082M1 bus1=RML1060924729.1.2.0,Phases=2,kv=0.24,kW=0.69074,pf=0.92,Vminpu=0.92,Vmaxpu=1.5,model=8,zipv=[0.5,0,0.5,1,0,0,0],daily=RUR1_10,status=variable
new load.3003766088M1 bus1=RML1051545795.1.2.0,Phases=2,kv=0.24,kW=1.2835,pf=0.92,Vminpu=0.92,Vmaxpu=1.5,model=8,zipv=[0.5,0,0.5,1,0,0,0],daily=RUR4_5,status=variable
new load.3011852391M1 bus1=RML1056852346.1.2.0,Phases=2,kv=0.24,kW=2.60316,pf=0.92,Vminpu=0.92,Vmaxpu=1.5,model=8,zipv=[0.5,0,0.5,1,0,0,0],daily=RUR4_8,status=variable
new load.3011829253M1 bus1=RML1056660140.1.2.0,Phases=2,kv=0.24,kW=1.2116,pf=0.92,Vminpu=0.92,Vmaxpu=1.5,model=8,zipv=[0.5,0,0.5,1,0,0,0],daily=RUR2_14,status=variable
new load.3004000921M1 bus1=RML1051274580.1.2.3.0,Phases=3,kv=0.22,kW=2.39798,pf=0.92,Vminpu=0.92,Vmaxpu=1.5,model=8,zipv=[0.5,0,0.5,1,0,0,0],daily=RUR4_11,status=variable
new load.3007750664M1 bus1=RML1055488452.1.2.3.0,Phases=3,kv=0.22,kW=3.40068,pf=0.92,Vminpu=0.92,Vmaxpu=1.5,model=8,zipv=[0.5,0,0.5,1,0,0,0],daily=RUR4_1,status=variable
new load.3006277383M1 bus1=RML1053589984.1.2.0,Phases=2,kv=0.24,kW=0.76784,pf=0.92,Vminpu=0.92,Vmaxpu=1.5,model=8,zipv=[0.5,0,0.5,1,0,0,0],daily=RUR2_19,status=variable
new load.3011155615M1 bus1=RML1055567356.1.2.3.0,Phases=3,kv=0.22,kW=9.61802,pf=0.92,Vminpu=0.92,Vmaxpu=1.5,model=8,zipv=[0.5,0,0.5,1,0,0,0],daily=RUR4_21,status=variable
new load.3007213637M1 bus1=RML1053993758.1.2.0,Phases=2,kv=0.24,kW=10.72286,pf=0.92,Vminpu=0.92,Vmaxpu=1.5,model=8,zipv=[0.5,0,0.5,1,0,0,0],daily=RUR4_10,status=variable
new load.3007213639M1 bus1=RML1053993723.1.2.0,Phases=2,kv=0.24,kW=1.365,pf=0.92,Vminpu=0.92,Vmaxpu=1.5,model=8,zipv=[0.5,0,0.5,1,0,0,0],daily=RUR3_12,status=variable
new load.3007213630M1 bus1=RML1053993695.1.2.0,Phases=2,kv=0.24,kW=1.55712,pf=0.92,Vminpu=0.92,Vmaxpu=1.5,model=8,zipv=[0.5,0,0.5,1,0,0,0],daily=RUR2_16,status=variable
new load.3007213632M1 bus1=RML1053993849.1.2.0,Phases=2,kv=0.24,kW=0.61666,pf=0.92,Vminpu=0.92,Vmaxpu=1.5,model=8,zipv=[0.5,0,0.5,1,0,0,0],daily=RUR4_10,status=variable
new load.3007213636M1 bus1=RML1053993772.1.2.0,Phases=2,kv=0.24,kW=0.58458,pf=0.92,Vminpu=0.92,Vmaxpu=1.5,model=8,zipv=[0.5,0,0.5,1,0,0,0],daily=RUR1_14,status=variable
new load.3007213631M1 bus1=RML1053993870.1.2.0,Phases=2,kv=0.24,kW=1.00324,pf=0.92,Vminpu=0.92,Vmaxpu=1.5,model=8,zipv=[0.5,0,0.5,1,0,0,0],daily=RUR2_16,status=variable
new load.3007213635M1 bus1=RML1053993779.1.2.0,Phases=2,kv=0.24,kW=0.6895,pf=0.92,Vminpu=0.92,Vmaxpu=1.5,model=8,zipv=[0.5,0,0.5,1,0,0,0],daily=RUR1_14,status=variable
new load.3007213634M1 bus1=RML1053993828.1.2.0,Phases=2,kv=0.24,kW=2.30898,pf=0.92,Vminpu=0.92,Vmaxpu=1.5,model=8,zipv=[0.5,0,0.5,1,0,0,0],daily=RUR3_12,status=variable
new load.3007213638M1 bus1=RML1053993737.1.2.0,Phases=2,kv=0.24,kW=1.21226,pf=0.92,Vminpu=0.92,Vmaxpu=1.5,model=8,zipv=[0.5,0,0.5,1,0,0,0],daily=RUR2_16,status=variable
new load.3007213633M1 bus1=RML1053993842.1.2.0,Phases=2,kv=0.24,kW=2.4402,pf=0.92,Vminpu=0.92,Vmaxpu=1.5,model=8,zipv=[0.5,0,0.5,1,0,0,0],daily=RUR2_16,status=variable
new load.3011452489M1 bus1=RML1056157344.1.2.0,Phases=2,kv=0.24,kW=1.63032,pf=0.92,Vminpu=0.92,Vmaxpu=1.5,model=8,zipv=[0.5,0,0.5,1,0,0,0],daily=RUR4_1,status=variable
new load.3011057540M1 bus1=RML1055082356.1.2.0,Phases=2,kv=0.24,kW=3.243,pf=0.92,Vminpu=0.92,Vmaxpu=1.5,model=8,zipv=[0.5,0,0.5,1,0,0,0],daily=RUR4_19,status=variable
new load.3010358456M1 bus1=RML1054647229.1.2.0,Phases=2,kv=0.24,kW=0.17804,pf=0.92,Vminpu=0.92,Vmaxpu=1.5,model=8,zipv=[0.5,0,0.5,1,0,0,0],daily=RUR3_2,status=variable
new load.3012705263M1 bus1=RML1060723431.1.2.0,Phases=2,kv=0.22,kW=1.8855,pf=0.92,Vminpu=0.92,Vmaxpu=1.5,model=8,zipv=[0.5,0,0.5,1,0,0,0],daily=RES3_3,status=variable
new load.3007653905M1 bus1=RML1051540755.1.2.3.0,Phases=3,kv=0.22,kW=1.4051,pf=0.92,Vminpu=0.92,Vmaxpu=1.5,model=8,zipv=[0.5,0,0.5,1,0,0,0],daily=RUR2_27,status=variable
new load.3013472169M1 bus1=RML1060876225.1.2.0,Phases=2,kv=0.24,kW=1.75848,pf=0.92,Vminpu=0.92,Vmaxpu=1.5,model=8,zipv=[0.5,0,0.5,1,0,0,0],daily=RES4_17,status=variable
new load.3013333790M1 bus1=RML1060707382.1.2.0,Phases=2,kv=0.24,kW=1.15032,pf=0.92,Vminpu=0.92,Vmaxpu=1.5,model=8,zipv=[0.5,0,0.5,1,0,0,0],daily=RUR4_12,status=variable
new load.3012294741M1 bus1=RML1060361432.1.2.0,Phases=2,kv=0.24,kW=2.97198,pf=0.92,Vminpu=0.92,Vmaxpu=1.5,model=8,zipv=[0.5,0,0.5,1,0,0,0],daily=RUR4_18,status=variable
new load.3011914582M1 bus1=RML1060053562.1.2.3.0,Phases=3,kv=0.22,kW=2.70066,pf=0.92,Vminpu=0.92,Vmaxpu=1.5,model=8,zipv=[0.5,0,0.5,1,0,0,0],daily=RUR4_9,status=variable
new load.3003810400M1 bus1=RML1051516766.1.2.0,Phases=2,kv=0.22,kW=0.24806,pf=0.92,Vminpu=0.92,Vmaxpu=1.5,model=8,zipv=[0.5,0,0.5,1,0,0,0],daily=RUR2_9,status=variable
new load.3001728333M1 bus1=RML1051532075.1.2.3.0,Phases=3,kv=0.22,kW=1.90012,pf=0.92,Vminpu=0.92,Vmaxpu=1.5,model=8,zipv=[0.5,0,0.5,1,0,0,0],daily=RUR3_11,status=variable
new load.3003466321M1 bus1=RML1051541168.1.2.3.0,Phases=3,kv=0.22,kW=15.80316,pf=0.92,Vminpu=0.92,Vmaxpu=1.5,model=8,zipv=[0.5,0,0.5,1,0,0,0],daily=RUR4_1,status=variable
new load.3001728265M1 bus1=RML1060621258.1.2.3.0,Phases=3,kv=0.22,kW=14.8598,pf=0.92,Vminpu=0.92,Vmaxpu=1.5,model=8,zipv=[0.5,0,0.5,1,0,0,0],daily=COM4_15,status=variable
new load.3003810399M1 bus1=RML1055068888.1.2.3.0,Phases=3,kv=0.22,kW=0.5293,pf=0.92,Vminpu=0.92,Vmaxpu=1.5,model=8,zipv=[0.5,0,0.5,1,0,0,0],daily=RES1_7,status=variable
new load.3001728335M1 bus1=RML1051538767.1.2.3.0,Phases=3,kv=0.22,kW=4.72614,pf=0.92,Vminpu=0.92,Vmaxpu=1.5,model=8,zipv=[0.5,0,0.5,1,0,0,0],daily=RUR4_9,status=variable
new load.3006036919M1 bus1=RML1055074502.1.2.0,Phases=2,kv=0.24,kW=0.48374,pf=0.92,Vminpu=0.92,Vmaxpu=1.5,model=8,zipv=[0.5,0,0.5,1,0,0,0],daily=RUR3_11,status=variable
